data/ppower/bsp4.m
% This file was generated by sparlectra exportMatPower.jl
function mpc = bsp4
%% MATPOWER Case Format : Version 2
mpc.version = '2';
%%-----  Power Flow Data  -----%%
%% system MVA base
mpc.baseMVA = 100.0;
%% bus data
mpc.bus = [
%bus	type	Pd	Qd	Gs	Bs	area	Vm	Va	baseKV	zone	Vmax	Vmin
1	3	0.0	0.0	0.0	0.0	1	1.09	0.0	110.0	1	1.1	0.9; %Bus: B1 (slack) (ID: 759e09b8-c17a-41f6-ab72-c0f0543a3157 kIdx: 1)
2	1	-45.0	106.0	0.0	0.0	1	1.0	0.0	110.0	1	1.1	0.9; %Bus: B2 (ID: 03fc3b58-ba67-44b9-864c-18e0ed1f99fb kIdx: 2)
3	1	0.0	0.0	0.0	0.0	1	1.0	0.0	110.0	1	1.1	0.9; %Bus: B3 (ID: 654c2d9c-fe12-4d9e-b471-1be8c66d1944 kIdx: 3)
4	1	-40.0	5.0	0.0	0.0	1	1.0	0.0	110.0	1	1.1	0.9; %Bus: B4 (ID: 01c8c5af-7915-4aeb-aebe-a1a4fe3603da kIdx: 4)
5	1	0.0	0.0	0.0	0.0	1	1.0	0.0	110.0	1	1.1	0.9; %Bus: B5 (ID: 55ba6555-ab8c-4195-9c82-7cb68b717a9c kIdx: 5)
];
%% generator data
mpc.gen = [
%bus	Pg	Qg	Qmax	Qmin	Vg	mBase	status	Pmax	Pmin	Pc1	Pc2	Qc1min	Qc1max	Qc2min	Qc2max	ramp_agc	ramp_10	ramp_30	ramp_q	apf
3	60.0	61.5	0	0	1.0	100.0	1	0	0	0.0	0.0	0.0	0.0	0.0	0.0	0.0	0.0	0.0	0.0	0.0; %Gen: Generator_SG3 (ID: 654c2d9c-fe12-4d9e-b471-1be8c66d1944)
5	20.0	20.0	0	0	1.0	100.0	1	0	0	0.0	0.0	0.0	0.0	0.0	0.0	0.0	0.0	0.0	0.0	0.0; %Gen: Generator_SG5 (ID: 55ba6555-ab8c-4195-9c82-7cb68b717a9c)
1	0.0	0	250.0	-250.0	1.09	100.0	1	0	0	0.0	0.0	0.0	0.0	0.0	0.0	0.0	0.0	0.0	0.0	0.0; %Gen: SynchronousMachine_VG1 (ID: 759e09b8-c17a-41f6-ab72-c0f0543a3157)
];
%% branch data
mpc.branch = [
%fbus	tbus	r	x	b	rateA	rateB	rateC	ratio	angle	status	angmin	angmax
1	3	0.02261157	0.05024793	0.0049402	0	0	0	0.0	0.0	1	-360	360; %Branch: Name: L1_3, Typ: LineC (ID: 3319fe83-e9ee-4796-8d56-2b5cd0e53051)
2	1	0.00366942	0.02323967	0.0024051	0	0	0	0.0	0.0	1	-360	360; %Branch: Name: L2_1, Typ: LineC (ID: cb75f8a7-76c1-4113-85fc-1e6d238d1c77)
4	2	0.03490909	0.06981818	0.00624026	0	0	0	0.0	0.0	1	-360	360; %Branch: Name: L4_2, Typ: LineC (ID: ac855e9d-5c9d-4b8e-8b1c-aa6d6e30d427)
4	1	0.02171901	0.07058678	0.00711779	0	0	0	0.0	0.0	1	-360	360; %Branch: Name: L4_1, Typ: LineC (ID: 066ebf63-dab3-4a09-8648-abd950599d29)
5	4	0.01487603	0.09669421	0.0097504	0	0	0	0.0	0.0	1	-360	360; %Branch: Name: L5_4, Typ: LineC (ID: 89ecc9b0-f047-4bb9-ad45-fe8855ccebe9)
5	3	0.00396694	0.02578512	0.00260011	0	0	0	0.0	0.0	1	-360	360; %Branch: Name: L5_3, Typ: LineC (ID: 802206d9-970b-4f32-b516-eb6d9adddcbc)
];
